hru-data.hru: written by SWAT+ editor v1.2.3 on 2021-01-24 15:52
      id  name                          topo             hydro              soil            lu_mgt   soil_plant_init         surf_stor              snow             field  
       1  hru001                  topohru001            hyd001              CMdy          rnge_lum        soilplant1              null           snow001              null  
       2  hru002                  topohru002            hyd002              CMdy          rnge_lum        soilplant1              null           snow001              null  
       3  hru003                  topohru003            hyd003              GLhu          rnge_lum        soilplant1              null           snow001              null  
       4  hru004                  topohru004            hyd004              CMdy          rnge_lum        soilplant1              null           snow001              null  
       5  hru005                  topohru005            hyd005              CMdy          rnge_lum        soilplant1              null           snow001              null  
       6  hru006                  topohru006            hyd006              GLhu          rnge_lum        soilplant1              null           snow001              null  
       7  hru007                  topohru007            hyd007              GLhu          rngb_lum        soilplant1              null           snow001              null  
       8  hru008                  topohru008            hyd008              GLhu          rngb_lum        soilplant1              null           snow001              null  
       9  hru009                  topohru009            hyd009              CMdy          rnge_lum        soilplant1              null           snow001              null  
      10  hru010                  topohru010            hyd010              GLhu          rnge_lum        soilplant1              null           snow001              null  
      11  hru011                  topohru011            hyd011              GLhu          rnge_lum        soilplant1              null           snow001              null  
      12  hru012                  topohru012            hyd012              GLhu          rngb_lum        soilplant1              null           snow001              null  
      13  hru013                  topohru013            hyd013              GLhu          rngb_lum        soilplant1              null           snow001              null  
      14  hru014                  topohru014            hyd014              CMdy          rnge_lum        soilplant1              null           snow001              null  
      15  hru015                  topohru015            hyd015              GLhu          rnge_lum        soilplant1              null           snow001              null  
      16  hru016                  topohru016            hyd016              GLhu          rngb_lum        soilplant1              null           snow001              null  
      17  hru017                  topohru017            hyd017              GLhu          rngb_lum        soilplant1              null           snow001              null  
      18  hru018                  topohru018            hyd018              GLhu          rngb_lum        soilplant1              null           snow001              null  
      19  hru019                  topohru019            hyd019              GLhu          rngb_lum        soilplant1              null           snow001              null  
      20  hru020                  topohru020            hyd020              GLhu          rngb_lum        soilplant1              null           snow001              null  
      21  hru021                  topohru021            hyd021              GLhu          rngb_lum        soilplant1              null           snow001              null  
      22  hru022                  topohru022            hyd022              GLhu          rngb_lum        soilplant1              null           snow001              null  
      23  hru023                  topohru023            hyd023              GLhu          rnge_lum        soilplant1              null           snow001              null  
      24  hru024                  topohru024            hyd024              GLhu          rnge_lum        soilplant1              null           snow001              null  
      25  hru025                  topohru025            hyd025              GLhu          rngb_lum        soilplant1              null           snow001              null  
      26  hru026                  topohru026            hyd026              GLhu          rngb_lum        soilplant1              null           snow001              null  
      27  hru027                  topohru027            hyd027              LPha          rngb_lum        soilplant1              null           snow001              null  
      28  hru028                  topohru028            hyd028              CMdy          rnge_lum        soilplant1              null           snow001              null  
      29  hru029                  topohru029            hyd029              GLhu          rnge_lum        soilplant1              null           snow001              null  
      30  hru030                  topohru030            hyd030              GLhu          rnge_lum        soilplant1              null           snow001              null  
      31  hru031                  topohru031            hyd031              GLhu          rnge_lum        soilplant1              null           snow001              null  
      32  hru032                  topohru032            hyd032              GLhu          rngb_lum        soilplant1              null           snow001              null  
      33  hru033                  topohru033            hyd033              GLhu          rngb_lum        soilplant1              null           snow001              null  
      34  hru034                  topohru034            hyd034              CMdy          rnge_lum        soilplant1              null           snow001              null  
      35  hru035                  topohru035            hyd035              GLhu          rnge_lum        soilplant1              null           snow001              null  
      36  hru036                  topohru036            hyd036              CMdy          uidu_lum        soilplant1              null           snow001              null  
      37  hru037                  topohru037            hyd037              CMdy          uidu_lum        soilplant1              null           snow001              null  
      38  hru038                  topohru038            hyd038              CMdy          uidu_lum        soilplant1              null           snow001              null  
      39  hru039                  topohru039            hyd039              GLhu          uidu_lum        soilplant1              null           snow001              null  
      40  hru040                  topohru040            hyd040              GLhu          rnge_lum        soilplant1              null           snow001              null  
      41  hru041                  topohru041            hyd041              GLhu          uidu_lum        soilplant1              null           snow001              null  
      42  hru042                  topohru042            hyd042              GLhu          uidu_lum        soilplant1              null           snow001              null  
      43  hru043                  topohru043            hyd043              GLhu          rnge_lum        soilplant1              null           snow001              null  
      44  hru044                  topohru044            hyd044              GLhu          rnge_lum        soilplant1              null           snow001              null  
      45  hru045                  topohru045            hyd045              GLhu          rnge_lum        soilplant1              null           snow001              null  
      46  hru046                  topohru046            hyd046              CMdy          rnge_lum        soilplant1              null           snow001              null  
      47  hru047                  topohru047            hyd047              CMdy          rnge_lum        soilplant1              null           snow001              null  
      48  hru048                  topohru048            hyd048              CMdy          rnge_lum        soilplant1              null           snow001              null  
      49  hru049                  topohru049            hyd049              CMdy          rnge_lum        soilplant1              null           snow001              null  
      50  hru050                  topohru050            hyd050              CMdy          rnge_lum        soilplant1              null           snow001              null  
      51  hru051                  topohru051            hyd051              CMdy          rnge_lum        soilplant1              null           snow001              null  
      52  hru052                  topohru052            hyd052              CMdy          uidu_lum        soilplant1              null           snow001              null  
      53  hru053                  topohru053            hyd053              CMdy          uidu_lum        soilplant1              null           snow001              null  
      54  hru054                  topohru054            hyd054              CMdy          rngb_lum        soilplant1              null           snow001              null  
      55  hru055                  topohru055            hyd055              CMdy          rngb_lum        soilplant1              null           snow001              null  
      56  hru056                  topohru056            hyd056              CMdy          rnge_lum        soilplant1              null           snow001              null  
      57  hru057                  topohru057            hyd057              CMdy          rngb_lum        soilplant1              null           snow001              null  
      58  hru058                  topohru058            hyd058              CMdy          rngb_lum        soilplant1              null           snow001              null  
      59  hru059                  topohru059            hyd059              CMdy          uidu_lum        soilplant1              null           snow001              null  
      60  hru060                  topohru060            hyd060              CMdy          uidu_lum        soilplant1              null           snow001              null  
      61  hru061                  topohru061            hyd061              CMdy          uidu_lum        soilplant1              null           snow001              null  
      62  hru062                  topohru062            hyd062              CMdy          uidu_lum        soilplant1              null           snow001              null  
      63  hru063                  topohru063            hyd063              CMdy          rngb_lum        soilplant1              null           snow001              null  
      64  hru064                  topohru064            hyd064              CMdy          uidu_lum        soilplant1              null           snow001              null  
      65  hru065                  topohru065            hyd065              CMdy          uidu_lum        soilplant1              null           snow001              null  
      66  hru066                  topohru066            hyd066              CMdy          uidu_lum        soilplant1              null           snow001              null  
      67  hru067                  topohru067            hyd067              CMdy          uidu_lum        soilplant1              null           snow001              null  
      68  hru068                  topohru068            hyd068              CMdy          uidu_lum        soilplant1              null           snow001              null  
      69  hru069                  topohru069            hyd069              GLhu          uidu_lum        soilplant1              null           snow001              null  
      70  hru070                  topohru070            hyd070              GLhu          uidu_lum        soilplant1              null           snow001              null  
      71  hru071                  topohru071            hyd071              CMdy          uidu_lum        soilplant1              null           snow001              null  
      72  hru072                  topohru072            hyd072              GLhu          uidu_lum        soilplant1              null           snow001              null  
      73  hru073                  topohru073            hyd073              GLhu          uidu_lum        soilplant1              null           snow001              null  
      74  hru074                  topohru074            hyd074              GLhu          uidu_lum        soilplant1              null           snow001              null  
      75  hru075                  topohru075            hyd075              CMdy          uidu_lum        soilplant1              null           snow001              null  
      76  hru076                  topohru076            hyd076              GLhu          uidu_lum        soilplant1              null           snow001              null  
      77  hru077                  topohru077            hyd077              GLhu          uidu_lum        soilplant1              null           snow001              null  
      78  hru078                  topohru078            hyd078              GLhu          uidu_lum        soilplant1              null           snow001              null  
      79  hru079                  topohru079            hyd079              GLhu          uidu_lum        soilplant1              null           snow001              null  
      80  hru080                  topohru080            hyd080              GLhu          uidu_lum        soilplant1              null           snow001              null  
      81  hru081                  topohru081            hyd081              GLhu          uidu_lum        soilplant1              null           snow001              null  
      82  hru082                  topohru082            hyd082              GLhu          past_lum        soilplant1              null           snow001              null  
      83  hru083                  topohru083            hyd083              GLhu          past_lum        soilplant1              null           snow001              null  
      84  hru084                  topohru084            hyd084              GLhu          uidu_lum        soilplant1              null           snow001              null  
      85  hru085                  topohru085            hyd085              GLhu          uidu_lum        soilplant1              null           snow001              null  
      86  hru086                  topohru086            hyd086              GLhu          uidu_lum        soilplant1              null           snow001              null  
      87  hru087                  topohru087            hyd087              GLhu          uidu_lum        soilplant1              null           snow001              null  
      88  hru088                  topohru088            hyd088              GLhu          uidu_lum        soilplant1              null           snow001              null  
      89  hru089                  topohru089            hyd089              GLhu          uidu_lum        soilplant1              null           snow001              null  
      90  hru090                  topohru090            hyd090              GLhu          rngb_lum        soilplant1              null           snow001              null  
      91  hru091                  topohru091            hyd091              GLhu          rngb_lum        soilplant1              null           snow001              null  
      92  hru092                  topohru092            hyd092              GLhu          rnge_lum        soilplant1              null           snow001              null  
      93  hru093                  topohru093            hyd093              GLhu          rnge_lum        soilplant1              null           snow001              null  
      94  hru094                  topohru094            hyd094              GLhu          rngb_lum        soilplant1              null           snow001              null  
      95  hru095                  topohru095            hyd095              LPha          rnge_lum        soilplant1              null           snow001              null  
      96  hru096                  topohru096            hyd096              GLhu          rnge_lum        soilplant1              null           snow001              null  
      97  hru097                  topohru097            hyd097              GLhu          rnge_lum        soilplant1              null           snow001              null  
      98  hru098                  topohru098            hyd098              GLhu          rnge_lum        soilplant1              null           snow001              null  
      99  hru099                  topohru099            hyd099              GLhu          past_lum        soilplant1              null           snow001              null  
     100  hru100                  topohru100            hyd100              GLhu          past_lum        soilplant1              null           snow001              null  
     101  hru101                  topohru101            hyd101              LPha          rnge_lum        soilplant1              null           snow001              null  
     102  hru102                  topohru102            hyd102              GLhu          rnge_lum        soilplant1              null           snow001              null  
     103  hru103                  topohru103            hyd103              GLhu          rnge_lum        soilplant1              null           snow001              null  
     104  hru104                  topohru104            hyd104              GLhu          rnge_lum        soilplant1              null           snow001              null  
     105  hru105                  topohru105            hyd105              GLhu          past_lum        soilplant1              null           snow001              null  
     106  hru106                  topohru106            hyd106              GLhu          past_lum        soilplant1              null           snow001              null  
     107  hru107                  topohru107            hyd107              GLhu          past_lum        soilplant1              null           snow001              null  
     108  hru108                  topohru108            hyd108              GLhu          past_lum        soilplant1              null           snow001              null  
     109  hru109                  topohru109            hyd109              GLhu          past_lum        soilplant1              null           snow001              null  
     110  hru110                  topohru110            hyd110              LPha          barr_lum        soilplant1              null           snow001              null  
     111  hru111                  topohru111            hyd111              LPha          rnge_lum        soilplant1              null           snow001              null  
     112  hru112                  topohru112            hyd112              LPha          rngb_lum        soilplant1              null           snow001              null  
     113  hru113                  topohru113            hyd113              LPha          rngb_lum        soilplant1              null           snow001              null  
     114  hru114                  topohru114            hyd114              LPha          rnge_lum        soilplant1              null           snow001              null  
     115  hru115                  topohru115            hyd115              LPha          rngb_lum        soilplant1              null           snow001              null  
     116  hru116                  topohru116            hyd116              LPha          rngb_lum        soilplant1              null           snow001              null  
     117  hru117                  topohru117            hyd117              LPha          rnge_lum        soilplant1              null           snow001              null  
     118  hru118                  topohru118            hyd118              LPha          rngb_lum        soilplant1              null           snow001              null  
     119  hru119                  topohru119            hyd119              LPha          rngb_lum        soilplant1              null           snow001              null  
     120  hru120                  topohru120            hyd120              LPha          rngb_lum        soilplant1              null           snow001              null  
     121  hru121                  topohru121            hyd121              LPha          rngb_lum        soilplant1              null           snow001              null  
     122  hru122                  topohru122            hyd122              LPha          rngb_lum        soilplant1              null           snow001              null  
     123  hru123                  topohru123            hyd123              CMdy          rngb_lum        soilplant1              null           snow001              null  
     124  hru124                  topohru124            hyd124              CMdy          uidu_lum        soilplant1              null           snow001              null  
     125  hru125                  topohru125            hyd125              CMdy          uidu_lum        soilplant1              null           snow001              null  
     126  hru126                  topohru126            hyd126              CMdy          rngb_lum        soilplant1              null           snow001              null  
     127  hru127                  topohru127            hyd127              CMdy          past_lum        soilplant1              null           snow001              null  
     128  hru128                  topohru128            hyd128              CMdy          uidu_lum        soilplant1              null           snow001              null  
     129  hru129                  topohru129            hyd129              CMdy          uidu_lum        soilplant1              null           snow001              null  
     130  hru130                  topohru130            hyd130              CMdy          uidu_lum        soilplant1              null           snow001              null  
     131  hru131                  topohru131            hyd131              CMdy          uidu_lum        soilplant1              null           snow001              null  
     132  hru132                  topohru132            hyd132              CMdy          uidu_lum        soilplant1              null           snow001              null  
     133  hru133                  topohru133            hyd133              CMdy          uidu_lum        soilplant1              null           snow001              null  
     134  hru134                  topohru134            hyd134              CMdy          uidu_lum        soilplant1              null           snow001              null  
     135  hru135                  topohru135            hyd135              CMdy          uidu_lum        soilplant1              null           snow001              null  
     136  hru136                  topohru136            hyd136              CMdy          uidu_lum        soilplant1              null           snow001              null  
     137  hru137                  topohru137            hyd137              CMdy          uidu_lum        soilplant1              null           snow001              null  
     138  hru138                  topohru138            hyd138              CMdy          uidu_lum        soilplant1              null           snow001              null  
     139  hru139                  topohru139            hyd139              CMdy          uidu_lum        soilplant1              null           snow001              null  
     140  hru140                  topohru140            hyd140              CMdy          uidu_lum        soilplant1              null           snow001              null  
     141  hru141                  topohru141            hyd141              CMdy          uidu_lum        soilplant1              null           snow001              null  
     142  hru142                  topohru142            hyd142              CMdy          uidu_lum        soilplant1              null           snow001              null  
     143  hru143                  topohru143            hyd143              CMdy          uidu_lum        soilplant1              null           snow001              null  
     144  hru144                  topohru144            hyd144              CMdy          uidu_lum        soilplant1              null           snow001              null  
     145  hru145                  topohru145            hyd145              GLhu          uidu_lum        soilplant1              null           snow001              null  
     146  hru146                  topohru146            hyd146              GLhu          uidu_lum        soilplant1              null           snow001              null  
     147  hru147                  topohru147            hyd147              GLhu          uidu_lum        soilplant1              null           snow001              null  
     148  hru148                  topohru148            hyd148              CMdy          uidu_lum        soilplant1              null           snow001              null  
     149  hru149                  topohru149            hyd149              CMdy          uidu_lum        soilplant1              null           snow001              null  
     150  hru150                  topohru150            hyd150              CMdy          past_lum        soilplant1              null           snow001              null  
     151  hru151                  topohru151            hyd151              CMdy          past_lum        soilplant1              null           snow001              null  
     152  hru152                  topohru152            hyd152              CMdy          past_lum        soilplant1              null           snow001              null  
     153  hru153                  topohru153            hyd153              CMdy          past_lum        soilplant1              null           snow001              null  
     154  hru154                  topohru154            hyd154              CMdy          urld_lum        soilplant1              null           snow001              null  
     155  hru155                  topohru155            hyd155              CMdy          urld_lum        soilplant1              null           snow001              null  
     156  hru156                  topohru156            hyd156              CMdy          past_lum        soilplant1              null           snow001              null  
     157  hru157                  topohru157            hyd157              CMdy          past_lum        soilplant1              null           snow001              null  
     158  hru158                  topohru158            hyd158              CMdy          past_lum        soilplant1              null           snow001              null  
     159  hru159                  topohru159            hyd159              CMdy          past_lum        soilplant1              null           snow001              null  
     160  hru160                  topohru160            hyd160              CMdy          past_lum        soilplant1              null           snow001              null  
     161  hru161                  topohru161            hyd161              CMdy          past_lum        soilplant1              null           snow001              null  
     162  hru162                  topohru162            hyd162              CMdy          past_lum        soilplant1              null           snow001              null  
     163  hru163                  topohru163            hyd163              CMdy          past_lum        soilplant1              null           snow001              null  
     164  hru164                  topohru164            hyd164              CMdy          past_lum        soilplant1              null           snow001              null  
     165  hru165                  topohru165            hyd165              CMdy          past_lum        soilplant1              null           snow001              null  
     166  hru166                  topohru166            hyd166              CMdy          past_lum        soilplant1              null           snow001              null  
     167  hru167                  topohru167            hyd167              CMdy          past_lum        soilplant1              null           snow001              null  
     168  hru168                  topohru168            hyd168              CMdy          past_lum        soilplant1              null           snow001              null  
     169  hru169                  topohru169            hyd169              CMdy          past_lum        soilplant1              null           snow001              null  
     170  hru170                  topohru170            hyd170              CMdy          past_lum        soilplant1              null           snow001              null  
     171  hru171                  topohru171            hyd171              CMdy          urld_lum        soilplant1              null           snow001              null  