landuse.lum: written by SWAT+ editor v1.2.3 on 2021-01-24 15:52
name                         cal_group          plnt_com               mgt               cn2         cons_prac             urban            urb_ro           ov_mann              tile               sep               vfs              grww               bmp  
rnge_lum                          null         rnge_comm              null           pastg_f     up_down_slope              null              null      range_sparse              null              null              null              null              null  
rngb_lum                          null         rngb_comm              null           brush_f     up_down_slope              null              null     range_20cover              null              null              null              null              null  
uidu_lum                          null              null              null             urban     up_down_slope              uidu   buildup_washoff     urban_asphalt              null              null              null              null              null  
past_lum                          null         past_comm              null           pastg_f     up_down_slope              null              null        densegrass              null              null              null              null              null  
barr_lum                          null              null              null          fal_bare     up_down_slope              null              null      fallow_nores              null              null              null              null              null  
urld_lum                          null              null              null             urban     up_down_slope              urld   buildup_washoff     urban_asphalt              null              null              null              null              null  
watr_lum                          null         watr_comm              null        rc_strow_g     up_down_slope              null              null    convtill_nores              null              null              null              null              null  
