time.sim: written by SWAT+ editor v1.2.3 on 2021-01-24 15:52
day_start  yrc_start   day_end   yrc_end      step  
       0      2000         0      2010         0  
